Circuit: * C:\Users\Utilisateur\Documents\GitHub Repository\APP3-S4-2021\S4iAPP3_prob\add3b_test.asc

WARNING: Less than two connections to node SEL.  This node is used by VSEL.
Direct Newton iteration for .op point succeeded.

t1: time=4.72788e-009 at 4.72788e-009
t2: time=1.28995e-008 at 1.28995e-008
t3: time=7.28036e-010 at 7.28036e-010
t4: time=6.044e-010 at 6.044e-010
transition_up: abs(t2-t1)=8.17161e-009
transition_down: abs(t4-t3)=1.23636e-010

Measurement "ratio" FAIL'ed


Date: Fri Jun 11 10:51:54 2021
Total elapsed time: 0.883 seconds.

tnom = 27
temp = 27
method = modified trap
totiter = 4784
traniter = 4752
tranpoints = 2172
accept = 2130
rejected = 42
matrix size = 99
fillins = 38
solver = Normal
Thread vector: 164.6/84.3[12] 36.8/18.7[10] 13.5/6.6[12] 0.5/9.8[1]  2592/500
Matrix Compiler1: 12.11 KB object code size  5.5/3.4/[1.2]
Matrix Compiler2: 12.53 KB object code size  2.6/3.5/[0.6]

