Circuit: * C:\Users\Utilisateur\Documents\GitHub Repository\APP3-S4-2021\S4iAPP3_prob\add3b_test.asc

WARNING: Less than two connections to node SEL.  This node is used by VSEL.

Date: Tue Jun 08 14:14:02 2021
Total elapsed time: 0.252 seconds.

tnom = 27
temp = 27
method = trap
totiter = 221
traniter = 0
tranpoints = 0
accept = 0
rejected = 0
matrix size = 91
fillins = 28
solver = Normal

