Circuit: * D:\Git\APP3-S4-2021\S4iAPP3_prob\add3b_test.asc

Warning: Multiple definitions of model "aons66402" Type: Vdmos1
WARNING: Less than two connections to node SEL.  This node is used by VSEL.

Date: Mon Jun 07 17:14:05 2021
Total elapsed time: 0.079 seconds.

tnom = 27
temp = 27
method = trap
totiter = 221
traniter = 0
tranpoints = 0
accept = 0
rejected = 0
matrix size = 91
fillins = 28
solver = Normal

