Circuit: * C:\Users\Utilisateur\Documents\GitHub Repository\APP3-S4-2021\S4iAPP3_prob\alu_test_trans.asc

Direct Newton iteration for .op point succeeded.

t1: time=1.14297e-009 at 1.14297e-009
t2: time=1.198e-009 at 1.198e-009
t3: time=6.45855e-010 at 6.45855e-010
t4: time=5.96796e-010 at 5.96796e-010
transition_up: abs(t2-t1)=5.50271e-011
transition_down: abs(t4-t3)=4.90591e-011

Measurement "ratio" FAIL'ed


Date: Fri Jun 11 10:14:05 2021
Total elapsed time: 4.386 seconds.

tnom = 27
temp = 27
method = modified trap
totiter = 10414
traniter = 10384
tranpoints = 3932
accept = 3142
rejected = 790
matrix size = 159
fillins = 46
solver = Normal
Thread vector: 532.2/306.2[12] 75.2/41.0[12] 22.8/12.6[12] 0.9/3.6[1]  2592/500
Matrix Compiler1: 19.21 KB object code size  9.9/7.3/[2.4]
Matrix Compiler2: 19.70 KB object code size  4.9/14.5/[1.1]

