Circuit: * C:\Users\Utilisateur\Documents\GitHub Repository\APP3-S4-2021\S4iAPP3_prob\alu_test_dc.asc


Date: Tue Jun 08 15:41:14 2021
Total elapsed time: 0.255 seconds.

tnom = 27
temp = 27
method = trap
totiter = 221
traniter = 0
tranpoints = 0
accept = 0
rejected = 0
matrix size = 153
fillins = 46
solver = Normal

