Circuit: * C:\Users\Utilisateur\Documents\GitHub Repository\APP3-S4-2021\S4iAPP3_prob\and3b.asc

Fatal Error: This circuit does not have a conduction path to ground!
   Please flag a node as ground.
