Circuit: * C:\Users\Utilisateur\Documents\GitHub Repository\APP3-S4-2021\S4iAPP3_prob\and3b_test.asc

WARNING: Less than two connections to node SEL.  This node is used by VSEL.

Date: Tue Jun 08 14:21:43 2021
Total elapsed time: 0.201 seconds.

tnom = 27
temp = 27
method = trap
totiter = 72
traniter = 0
tranpoints = 0
accept = 0
rejected = 0
matrix size = 31
fillins = 0
solver = Normal
Matrix Compiler1: 1.17 KB object code size
Matrix Compiler2: 2.51 KB object code size
