Circuit: * C:\Users\Utilisateur\Documents\GitHub Repository\APP3-S4-2021\S4iAPP3_prob\and3b_test.asc

WARNING: Less than two connections to node SEL.  This node is used by VSEL.
Direct Newton iteration for .op point succeeded.

t1: time=5.47039e-010 at 5.47039e-010
t2: time=6.32831e-010 at 6.32831e-010
t3: time=4.7032e-009 at 4.7032e-009
t4: time=4.60341e-009 at 4.60341e-009
transition_up: abs(t2-t1)=8.57923e-011
transition_down: abs(t4-t3)=9.97839e-011

Measurement "ratio" FAIL'ed


Date: Fri Jun 11 10:22:47 2021
Total elapsed time: 0.254 seconds.

tnom = 27
temp = 27
method = modified trap
totiter = 6213
traniter = 6202
tranpoints = 2662
accept = 2450
rejected = 212
matrix size = 31
fillins = 0
solver = Normal
Matrix Compiler1: 1.21 KB object code size  0.4/0.2/[0.1]
Matrix Compiler2: off  [0.2]/0.4/0.3

