Circuit: * D:\Git\APP3-S4-2021\S4iAPP3_prob\and3b_test.asc

Warning: Multiple definitions of model "aons66402" Type: Vdmos1
WARNING: Less than two connections to node SEL.  This node is used by VSEL.

Date: Mon Jun 07 16:42:57 2021
Total elapsed time: 0.055 seconds.

tnom = 27
temp = 27
method = trap
totiter = 72
traniter = 0
tranpoints = 0
accept = 0
rejected = 0
matrix size = 31
fillins = 0
solver = Normal
Matrix Compiler1: 1.17 KB object code size
Matrix Compiler2: 2.51 KB object code size
