Circuit: * D:\Git\APP3-S4-2021\S4iAPP3_prob\mux2x3b_test.asc

Warning: Multiple definitions of model "aons66402" Type: Vdmos1
Direct Newton iteration for .op point succeeded.

Date: Mon Jun 07 16:26:50 2021
Total elapsed time: 0.107 seconds.

tnom = 27
temp = 27
method = modified trap
totiter = 2621
traniter = 2604
tranpoints = 1179
accept = 1143
rejected = 36
matrix size = 43
fillins = 6
solver = Normal
Thread vector: 21.6/16.4[4] 3.5/2.5[4] 2.5/1.4[4] 0.1/0.9[1]  2592/500
Matrix Compiler1: 3.71 KB object code size  0.6/0.3/[0.2]
Matrix Compiler2: 4.59 KB object code size  0.3/0.5/[0.2]

