Circuit: * C:\Users\Utilisateur\Documents\GitHub Repository\APP3-S4-2021\S4iAPP3_prob\nand_test.asc

Direct Newton iteration for .op point succeeded.

t1: time=3.00977e-009 at 3.00977e-009
t2: time=3.06857e-009 at 3.06857e-009
t3: time=2.08341e-009 at 2.08341e-009
t4: time=2.01599e-009 at 2.01599e-009
transition_up: abs(t2-t1)=5.87927e-011
transition_down: abs(t4-t3)=6.74209e-011

Measurement "ratio" FAIL'ed


Date: Tue Jun 08 14:46:31 2021
Total elapsed time: 0.153 seconds.

tnom = 27
temp = 27
method = modified trap
totiter = 2770
traniter = 2764
tranpoints = 1310
accept = 1227
rejected = 83
matrix size = 8
fillins = 0
solver = Normal
Matrix Compiler1: 282 bytes object code size  0.1/0.1/[0.0]
Matrix Compiler2: 642 bytes object code size  0.1/0.1/[0.1]

