Circuit: * C:\Users\Utilisateur\Documents\GitHub Repository\APP3-S4-2021\S4iAPP3_prob\nand_test.asc

Direct Newton iteration for .op point succeeded.

t1: time=3.00951e-009 at 3.00951e-009
t2: time=3.06494e-009 at 3.06494e-009
t3: time=2.07678e-009 at 2.07678e-009
t4: time=2.01536e-009 at 2.01536e-009
transition_up: abs(t2-t1)=5.54259e-011
transition_down: abs(t4-t3)=6.14146e-011

Measurement "ratio" FAIL'ed


Date: Fri Jun 11 09:19:08 2021
Total elapsed time: 0.212 seconds.

tnom = 27
temp = 27
method = modified trap
totiter = 2843
traniter = 2837
tranpoints = 1347
accept = 1258
rejected = 89
matrix size = 8
fillins = 0
solver = Normal
Matrix Compiler1: 282 bytes object code size  0.1/0.1/[0.0]
Matrix Compiler2: off  [0.1]/0.1/0.1

