Circuit: * D:\UdeS\Session4\ProjetsLTSpice\S4iAPP3_prob_E21\S4iAPP3_prob\nor_test.asc

Warning: Multiple definitions of model "aons66402" Type: Vdmos1
WARNING: Node X1:N001 is floating.

Direct Newton iteration for .op point succeeded.

t1: time=4.03797e-009 at 4.03797e-009
t2: time=4.20676e-009 at 4.20676e-009
t3: time=1.0507e-009 at 1.0507e-009
t4: time=1.00834e-009 at 1.00834e-009
transition_up: abs(t2-t1)=1.68789e-010
transition_down: abs(t4-t3)=4.23614e-011

Measurement "ratio" FAIL'ed


Date: Mon Jun 07 09:42:00 2021
Total elapsed time: 0.108 seconds.

tnom = 27
temp = 27
method = modified trap
totiter = 2603
traniter = 2586
tranpoints = 1244
accept = 1177
rejected = 67
matrix size = 9
fillins = 0
solver = Normal
Matrix Compiler1: 448 bytes object code size  0.1/0.1/[0.0]
Matrix Compiler2: off  [0.1]/0.1/0.1

