Circuit: * C:\Users\Utilisateur\Documents\GitHub Repository\APP3-S4-2021\S4iAPP3_prob\pad_buffer_test.asc

Direct Newton iteration for .op point succeeded.

Date: Fri Jun 11 10:15:38 2021
Total elapsed time: 0.151 seconds.

tnom = 27
temp = 27
method = modified trap
totiter = 2981
traniter = 2972
tranpoints = 1335
accept = 1196
rejected = 139
matrix size = 12
fillins = 0
solver = Normal
Matrix Compiler1: 824 bytes object code size  0.1/0.1/[0.1]
Matrix Compiler2: 1.02 KB object code size  0.1/0.1/[0.1]

