Circuit: * C:\Users\Utilisateur\Documents\GitHub Repository\APP3-S4-2021\S4iAPP3_prob\pad_buffer_test.asc

Direct Newton iteration for .op point succeeded.

Date: Tue Jun 08 15:13:59 2021
Total elapsed time: 0.183 seconds.

tnom = 27
temp = 27
method = modified trap
totiter = 3737
traniter = 3728
tranpoints = 1677
accept = 1401
rejected = 276
matrix size = 12
fillins = 0
solver = Normal
Matrix Compiler1: 932 bytes object code size  0.2/0.2/[0.1]
Matrix Compiler2: off  [0.1]/0.2/0.1

