Circuit: * C:\Users\Utilisateur\Documents\GitHub Repository\APP3-S4-2021\S4iAPP3_prob\xor_test.asc

Direct Newton iteration for .op point succeeded.

t1: time=3.01493e-009 at 3.01493e-009
t2: time=3.13203e-009 at 3.13203e-009
t3: time=2.12204e-009 at 2.12204e-009
t4: time=2.03015e-009 at 2.03015e-009
transition_up: abs(t2-t1)=1.17105e-010
transition_down: abs(t4-t3)=9.18879e-011

Measurement "ratio" FAIL'ed


Date: Wed Jun 09 17:11:13 2021
Total elapsed time: 0.227 seconds.

tnom = 27
temp = 27
method = modified trap
totiter = 2766
traniter = 2752
tranpoints = 1302
accept = 1223
rejected = 79
matrix size = 12
fillins = 2
solver = Normal
Matrix Compiler1: 1000 bytes object code size  0.2/0.2/[0.1]
Matrix Compiler2: 1.30 KB object code size  0.1/0.1/[0.1]

