Circuit: * C:\Users\Utilisateur\Documents\GitHub Repository\APP3-S4-2021\S4iAPP3_prob\xor_test.asc

Direct Newton iteration for .op point succeeded.

t1: time=1.00092e-009 at 1.00092e-009
t2: time=1.21627e-009 at 1.21627e-009
t3: time=1.00271e-009 at 1.00271e-009
t4: time=2.02862e-009 at 2.02862e-009
transition_up: abs(t2-t1)=2.15355e-010
transition_down: abs(t4-t3)=1.02592e-009

Measurement "ratio" FAIL'ed


Date: Tue Jun 08 14:53:01 2021
Total elapsed time: 0.201 seconds.

tnom = 27
temp = 27
method = modified trap
totiter = 2794
traniter = 2774
tranpoints = 1303
accept = 1225
rejected = 78
matrix size = 12
fillins = 2
solver = Normal
Matrix Compiler1: 1000 bytes object code size  0.2/0.2/[0.1]
Matrix Compiler2: 1.30 KB object code size  0.1/0.2/[0.1]

