Circuit: * C:\Users\Utilisateur\Documents\GitHub Repository\APP3-S4-2021\S4iAPP3_prob\xor_test.asc

Direct Newton iteration for .op point succeeded.

t1: time=3.01496e-009 at 3.01496e-009
t2: time=3.13191e-009 at 3.13191e-009
t3: time=2.11212e-009 at 2.11212e-009
t4: time=2.02542e-009 at 2.02542e-009
transition_up: abs(t2-t1)=1.16943e-010
transition_down: abs(t4-t3)=8.66955e-011

Measurement "ratio" FAIL'ed


Date: Fri Jun 11 09:55:04 2021
Total elapsed time: 0.158 seconds.

tnom = 27
temp = 27
method = modified trap
totiter = 2771
traniter = 2740
tranpoints = 1295
accept = 1213
rejected = 82
matrix size = 13
fillins = 2
solver = Normal
Matrix Compiler1: 1.03 KB object code size  0.2/0.1/[0.1]
Matrix Compiler2: 1.37 KB object code size  0.1/0.2/[0.1]

